8
New structure
 C    0.000000    0.000000    0.000000
 C    0.000000    0.000000    1.000000
 C    0.000000    1.000000    0.000000
 C    0.000000    1.000000    1.000000
 C    1.000000    0.000000    0.000000
 C    1.000000    0.000000    1.000000
 C    1.000000    1.000000    0.000000
 C    1.000000    1.000000    1.000000
